Circuit: * C:\Users\Amin Fadel\Downloads\MCT232s-OpAmp-PID\ElectronicsProject-PID-NoFeedback.asc

Limiting fall time of source v1 to 1
WARNING: Less than two connections to node NC_01 of instance R9:  Node and device optimized out.
Early termination of direct N-R iteration.
Direct Newton iteration failed to find .op point.  (Use ".option noopiter" to skip.)
Starting Gmin stepping
Gmin = 10
vernier = 0.5
Gmin = 1.67772
vernier = 0.25
vernier = 0.125
vernier = 0.0625
Gmin = 1.40196
vernier = 0.03125
vernier = 0.015625
vernier = 0.0078125
vernier = 0.00390625
Gmin = 1.40596
vernier = 0.00195313
vernier = 0.000976563
vernier = 0.000488281
Gmin = 1.40459
Gmin = 0
Gmin stepping failed

Starting source stepping with srcstepmethod=0
Source Step = 3.0303%
Source Step = 19.8864%
Source Step = 21.7803%
Source Step = 23.6742%
Source Step = 25.5682%
Source Step = 27.4621%
Source Step = 29.3561%
vernier = 0.09375
Source Step = 32.197%
Source Step = 35.0379%
Source Step = 37.8788%
Source Step = 40.7197%
Source Step = 43.5606%
vernier = 0.140625
Source Step = 47.6799%
Source Step = 51.9413%
Source Step = 56.2027%
Source Step = 60.464%
Source Step = 64.7254%
vernier = 0.210938
Source Step = 70.6913%
Source Step = 77.0833%
Source Step = 83.4754%
Source Step = 89.8674%
Source Step = 96.2595%
vernier = 0.316406
Source stepping succeeded in finding the operating point.


Date: Sat May 11 22:21:32 2024
Total elapsed time: 3.372 seconds.

tnom = 27
temp = 27
method = modified trap
totiter = 7275
traniter = 4451
tranpoints = 1569
accept = 1393
rejected = 176
matrix size = 304
fillins = 917
solver = Normal
Thread vector: 48.3/23.3[8] 37.1/16.2[8] 24.6/16.2[8] 4.7/7.5[1]  2592/500
Matrix Compiler1: 126.96 KB object code size  38.5/22.2/[15.3]
Matrix Compiler2: 43.90 KB object code size  12.9/11.9/[7.9]

